%nprocshared=4
%mem=4GB
%chk=brch3cl.chk
%nosave
# opt=(calcfc,ts) freq=noraman b3lyp/6-311+g(d,p) scf=qc

BrCH3Cl_6311G_dp

-1 1
 C                  3.00963210    0.02018872    0.21496480
 H                  2.62439124    0.33104184   -0.73364460
 H                  2.81723160    0.60691619    1.08882574
 H                  3.58727161   -0.87738856    0.28971511
 Br                 1.33902346   -1.02702079    0.55025424
 Cl                 4.68024496    1.06739022   -0.12032866



