%nprocshared=2
%mem=2GB
%chk=ch3cl.chk
%nosave
# opt=maxcycles=2048 freq=noraman b3lyp/6-311g(d,p) scf=qc

CH3Cl

0 1
 C                 -1.19361022    0.07161997   -0.00000000
 H                 -0.83693738    0.57601844    0.87365134
 H                 -0.83693738    0.57601844   -0.87365134
 H                 -2.26361022    0.07163306   -0.00000000
 Cl                -0.60696386   -1.58773112   -0.00000000

